src/Test_Network/C8_Master.dss
Clear
New Circuit.IEEE8500  
~ pu=1.05  r1=0  x1=0.001  r0=0  x0=0.001  
Redirect  LineCodes2.dss
Redirect  Triplex_Linecodes.dss
Redirect  C8_Lines.dss
Redirect  C8_Transformers.dss
Redirect  C8_LoadXfmrs.dss    ! Load Transformers
Redirect  C8_Triplex_Lines.dss
Redirect  C8_Loads.dss     ! Balanced Loads
Redirect  C8_Capacitors.dss
Redirect  C8_CapControls.dss
Redirect  C8_Regulators.dss
Set voltagebases=[115, 12.47,  0.48, 0.208]
Calcvoltagebases     ! This also establishes the bus list
Buscoords  C8_Buscoords.dss
